

Digital Design Using VHDL
A Systems Approach
This introductory textbook provides students with a system-level perspective and
the tools they need to understand, analyze, and design digital systems. It goes
beyond the design of simple combinational and sequential modules to show how
such modules are used to build complete systems.
All the essential topics needed to understand modern design practice are
covered, including:
Design and analysis of combinational and sequential modules
Composition of combinational and sequential modules
Data and control partitioning
Factoring and composition of finite-state machines
Interface specification
System timing
Synchronization
Teaches how to write VHDL-2008 HDL in a productive and maintainable
style that enables CAD tools to do much of the tedious work.
Covers the fundamentals of logic design, describing an efficient method
to design combinational logic and state machines both manually and
using modern CAD tools.
A complete introduction to digital design is given through clear explanations,
extensive examples, and online VHDL files. The teaching package is completed
with lecture slides, labs, and a solutions manual for instructors (available via

www.cambridge.org/dallyvhdl). Assuming no previous digital knowledge, this
textbook is ideal for undergraduate digital design courses that will prepare
students for modern digital practice.
WILLIAM J. DALLY is the Willard R. and Inez Kerr Bell Professor of Engineering
at Stanford University and Chief Scientist at NVIDIA Corporation. He and his
group have developed system architecture, network architecture, signaling,
routing, and synchronization technology that can be found in most large parallel
computers today. He is a Member of the National Academy of Engineering, a
Fellow of the IEEE, a Fellow of the ACM, and a Fellow of the American
Academy of Arts and Sciences. He has received numerous honors, including the
ACM Eckert-Mauchly Award, the IEEE Seymour Cray Award, and the ACM
Maurice Wilkes Award.
R. CURTIS HARTING is a Software Engineer at Google and holds a Ph.D. from
Stanford University. He graduated with honors in 2007 from Duke University
with a B.S.E., majoring in Electrical & Computer Engineering and Computer
Science. He received his M.S. in 2009 from Stanford University.
TOR M. AAMODT is an Associate Professor in the Department of Electrical and
Computer Engineering at the University of British Columbia. Alongside his
graduate students, he developed the GPGPU-Sim simulator. Three of his papers
related to the architecture of general purpose GPUs have been selected as “Top
Picks” by IEEE Micro Magazine and one as a “Research Highlight” by
Communications of the ACM magazine. He was a Visiting Associate Professor
in the Computer Science Department at Stanford University during his 2012–
2013 sabbatical, and from 2004 to 2006 he worked at NVIDIA on the memory
system architecture (“framebuffer”) of the GeForce 8 Series GPU.
“Dally and Harting blend circuit and architecture design in a clear and
constructive manner on the basis of their exceptional experience in digital
design.”
“Students will discover a modern and effective way to understand the
fundamental underpinning of digital design, by being exposed to the different
abstraction levels and views of computing systems.”
Giovanni De Micheli, EPFL Switzerland
“Bill and Curt have combined decades of academic and industry experience to
produce a textbook that teaches digital system design from a very practical
perspective without sacrificing the theoretical understanding needed to train

tomorrow’s engineers. Their approach pushes students to understand not just
what they are designing, but also what they are building. By presenting key
advanced topics, such as synthesis, delay and logical effort, and synchronization,
at the introductory level, this book is in the rare position of providing both
practical advice and deep understanding. In doing so, this book will prepare
students well even as technology, tools, and techniques change in the future.”
David Black-Schaffer, Uppsala University
“Everything you would expect from a book on digital design from Professor
Dally. Decades of practical experience are distilled to provide the tools
necessary to design and compose complete digital systems. A clear and well-
written text that covers the basics and system-level issues equally well. An ideal
starting point for the microprocessor and SoC designers of the future!”
Robert Mullins, University of Cambridge and the Raspberry Pi Foundation
“This textbook sets a new standard for how digital system design is taught to
undergraduates. The practical approach and concrete examples provide a solid
foundation for anyone who wants to understand or design modern complex
digital systems.”
Steve Keckler, The University of Texas at Austin
“This book not only teaches how to do digital design, but more importantly
shows how to do good design. It stresses the importance of modularization with
clean interfaces, and the importance of producing digital artifacts that not only
meet their specifications, but which can also be easily understood by others. It
uses an aptly chosen set of examples and the Verilog code used to implement
them.”
“It includes a section on the design of asynchronous logic, a topic that is likely to
become increasingly important as energy consumption becomes a primary
concern in digital systems.”
“The final appendix on Verilog coding style is particularly useful. This book will
be valuable not only to students, but also to practitioners in the area. I
recommend it highly.”
Chuck Thacker, Microsoft
“A terrific book with a terrific point-of-view of systems. Everything interesting –
and awful – that happens in digital design happens because engineers must
integrate ideas from bits to blocks, from signals to CPUs. The book does a great
job of focusing on the important stuff, moving from foundations to systems, with
the right amount of HDL (Verilog) focus to make everything practical and

relevant.”
Rob A. Rutenbar, University of Illinois at Urbana-Champaign

Digital Design Using VHDL
A Systems Approach
WILLIAM J. DALLY
Stanford University
R. CURTIS HARTING
Google, Inc.
TOR M. AAMODT
The University of British Columbia

University Printing House, Cambridge CB2 8BS, United Kingdom Cambridge University Press is part of
the University of Cambridge.
It furthers the University’s mission by disseminating knowledge in the pursuit of education, learning and
research at the highest international levels of excellence.
www.cambridge.org
Information on this title: www.cambridge.org/9781107098862
© Cambridge University Press 2016
This publication is in copyright. Subject to statutory exception and to the provisions of relevant collective
licensing agreements, no reproduction of any part may take place without the written permission of
Cambridge University Press.
First published 2016
Printed in the United Kingdom by TJ International Ltd. Padstow Cornwall A catalog record for this
publication is available from the British Library Library of Congress Cataloging in Publication data Dally,
William J., author.
Digital design using VHDL : a systems approach / William J. Dally, Stanford University, California, R.
Curtis Harting, Google, Inc., New York, Tor M. Aamodt, The University of British Columbia.

pages cm
Includes bibliographical references and index.
ISBN 978-1-10709886-2 (Hardback : alk. paper) 1. Digital integrated circuits–Computer-aided design. 2.
Electronic digital computers–Computer-aided design. 3. Digital electronics–Data processing. 4. VHDL
(Computer hardware description language) I. Harting, R. Curtis, author. II. Aamodt, Tor M., author. III.
Title.
TK7868.D5D3285 2015
621.38150285′5133–dc23 2015021269
ISBN 978-1-10709886-2 Hardback
Additional resources for this publication at www.cambridge.org/9781107098862
Cambridge University Press has no responsibility for the persistence or accuracy of URLs for external or
third-party internet websites referred to in this publication, and does not guarantee that any content on such
websites is, or will remain, accurate or appropriate.

CONTENTS
Preface
Acknowledgments
Part I Introduction
1 The digital abstraction
1.1 Digital signals
1.2 Digital signals tolerate noise
1.3 Digital signals represent complex data
1.3.1 Representing the day of the year
1.3.2 Representing subtractive colors
1.4 Digital logic functions
1.5 VHDL description of digital circuits and systems
1.6 Digital logic in systems
Summary
Bibliographic notes
Exercises
2 The practice of digital system design
2.1 The design process
2.1.1 Specification
2.1.2 Concept development and feasibility
2.1.3 Partitioning and detailed design
2.1.4 Verification
2.2 Digital systems are built from chips and boards
2.3 Computer-aided design tools
2.4 Moore’s law and digital system evolution
Summary

Bibliographic notes
Exercises
Part II Combinational logic
3 Boolean algebra
3.1 Axioms
3.2 Properties
3.3 Dual functions
3.4 Normal form
3.5 From equations to gates
3.6 Boolean expressions in VHDL
Summary
Bibliographic notes
Exercises
4 CMOS logic circuits
4.1 Switch logic
4.2 Switch model of MOS transistors
4.3 CMOS gate circuits
4.3.1 Basic CMOS gate circuit
4.3.2 Inverters, NANDs, and NORs
4.3.3 Complex gates
4.3.4 Tri-state circuits
4.3.5 Circuits to avoid
Summary
Bibliographic notes
Exercises
5 Delay and power of CMOS circuits
5.1 Delay of static CMOS gates
5.2 Fan-out and driving large loads
5.3 Fan-in and logical effort
5.4 Delay calculation

5.5 Optimizing delay
5.6 Wire delay
5.7 Power dissipation in CMOS circuits
5.7.1 Dynamic power
5.7.2 Static power
5.7.3 Power scaling
Summary
Bibliographic notes
Exercises
6 Combinational logic design
6.1 Combinational logic
6.2 Closure
6.3 Truth tables, minterms, and normal form
6.4 Implicants and cubes
6.5 Karnaugh maps
6.6 Covering a function
6.7 From a cover to gates
6.8 Incompletely specified functions
6.9 Product-of-sums implementation
6.10 Hazards
Summary
Bibliographic notes
Exercises
7 VHDL descriptions of combinational logic
7.1 The prime number circuit in VHDL
7.1.1 A VHDL design entity
7.1.2 The case statement
7.1.3 The case? statement
7.1.4 The if statement
7.1.5 Concurrent signal assignment statements
7.1.6 Selected signal assignment statements
7.1.7 Conditional signal assignment statements
7.1.8 Structural description

7.1.9 The decimal prime number function
7.2 A testbench for the prime number circuit
7.3 Example: a seven-segment decoder
Summary
Bibliographic notes
Exercises
8 Combinational building blocks
8.1 Multi-bit notation
8.2 Decoders
8.3 Multiplexers
8.4 Encoders
8.5 Arbiters and priority encoders
8.6 Comparators
8.7 Shifters
8.8 Read-only memories
8.9 Read–write memories
8.10 Programmable logic arrays
8.11 Data sheets
8.12 Intellectual property
Summary
Bibliographic notes
Exercises
9 Combinational examples
9.1 Multiple-of-3 circuit
9.2 Tomorrow circuit
9.3 Priority arbiter
9.4 Tic-tac-toe
Summary
Exercises
Part III Arithmetic circuits

10 Arithmetic circuits
10.1 Binary numbers
10.2 Binary addition
10.3 Negative numbers and subtraction
10.4 Multiplication
10.5 Division
Summary
Exercises
11 Fixed-and floating-point numbers
11.1 Representation error: accuracy, precision, and resolution
11.2 Fixed-point numbers
11.2.1 Representation
11.2.2 Operations
11.3 Floating-point numbers
11.3.1 Representation
11.3.2 Denormalized numbers and gradual underflow
11.3.3 Floating-point multiplication
11.3.4 Floating-point addition/subtraction
Summary
Bibliographic note
Exercises
12 Fast arithmetic circuits
12.1 Carry look-ahead
12.2 Booth recoding
12.3 Wallace trees
12.4 Synthesis notes
Summary
Bibliographic notes
Exercises
13 Arithmetic examples
13.1 Complex multiplication

13.2 Converting between fixed-and floating-point formats
13.2.1 Floating-point format
13.2.2 Fixed-to floating-point conversion
13.2.3 Floating-to fixed-point conversion
13.3 FIR filter
Summary
Bibliographic note
Exercises
Part IV Synchronous sequential logic
14 Sequential logic
14.1 Sequential circuits
14.2 Synchronous sequential circuits
14.3 Traffic-light controller
14.4 State assignment
14.5 Implementation of finite-state machines
14.6 VHDL implementation of finite-state machines
Summary
Bibliographic notes
Exercises
15 Timing constraints
15.1 Propagation and contamination delay
15.2 The D flip-flop
15.3 Setup-and hold-time constraints
15.4 The effect of clock skew
15.5 Timing examples
15.6 Timing and logic synthesis
Summary
Bibliographic notes
Exercises
16 Datapath sequential logic

16.1 Counters
16.1.1 A simpler counter
16.1.2 Up/down/load counter
16.1.3 A timer
16.2 Shift registers
16.2.1 A simple shift register
16.2.2 Left/right/load (LRL) shift register
16.2.3 Universal shifter/counter
16.3 Control and data partitioning
16.3.1 Example: vending machine FSM
16.3.2 Example: combination lock
Summary
Exercises
17 Factoring finite-state machines
17.1 A light flasher
17.2 Traffic-light controller
Summary
Exercises
18 Microcode
18.1 Simple microcoded FSM
18.2 Instruction sequencing
18.3 Multi-way branches
18.4 Multiple instruction types
18.5 Microcode subroutines
18.6 Simple computer
Summary
Bibliographic notes
Exercises
19 Sequential examples
19.1 Divide-by-3 counter
19.2 SOS detector
19.3 Tic-tac-toe game

19.4 Huffman encoder/decoder
19.4.1 Huffman encoder
19.4.2 Huffman decoder
Summary
Bibliographic note
Exercises
Part V Practical design
20 Verification and test
20.1 Design verification
20.1.1 Verification coverage
20.1.2 Types of tests
20.1.3 Static timing analysis
20.1.4 Formal verification
20.1.5 Bug tracking
20.2 Test
20.2.1 Fault models
20.2.2 Combinational testing
20.2.3 Testing redundant logic
20.2.4 Scan
20.2.5 Built-in self-test (BIST)
20.2.6 Characterization
Summary
Bibliographic notes
Exercises
Part VI System design
21 System-level design
21.1 System design process
21.2 Specification
21.2.1 Pong
21.2.2 DES cracker
21.2.3 Music player
21.3 Partitioning

21.3.1 Pong
21.3.2 DES cracker
21.3.3 Music synthesizer
Summary
Bibliographic notes
Exercises
22 Interface and system-level timing
22.1 Interface timing
22.1.1 Always valid timing
22.1.2 Periodically valid signals
22.1.3 Flow control
22.2 Interface partitioning and selection
22.3 Serial and packetized interfaces
22.4 Isochronous timing
22.5 Timing tables
22.5.1 Event flow
22.5.2 Pipelining and anticipatory timing
22.6 Interface and timing examples
22.6.1 Pong
22.6.2 DES cracker
22.6.3 Music player
Summary
Exercises
23 Pipelines
23.1 Basic pipelining
23.2 Example pipelines
23.3 Example: pipelining a ripple-carry adder
23.4 Pipeline stalls
23.5 Double buffering
23.6 Load balance
23.7 Variable loads
23.8 Resource sharing
Summary

Bibliographic notes
Exercises
24 Interconnect
24.1 Abstract interconnect
24.2 Buses
24.3 Crossbar switches
24.4 Interconnection networks
Summary
Bibliographic notes
Exercises
25 Memory systems
25.1 Memory primitives
25.1.1 SRAM arrays
25.1.2 DRAM chips
25.2 Bit-slicing and banking memory
25.3 Interleaved memory
25.4 Caches
Summary
Bibliographic notes
Exercises
Part VII Asynchronous logic
26 Asynchronous sequential circuits
26.1 Flow-table analysis
26.2 Flow-table synthesis: the toggle circuit
26.3 Races and state assignment
Summary
Bibliographic notes
Exercises
27 Flip-flops

27.1 Inside a latch
27.2 Inside a flip-flop
27.3 CMOS latches and flip-flops
27.4 Flow-table derivation of the latch
27.5 Flow-table synthesis of a D flip-flop
Summary
Bibliographic notes
Exercises
28 Metastability and synchronization failure
28.1 Synchronization failure
28.2 Metastability
28.3 Probability of entering and leaving an illegal state
28.4 Demonstration of metastability
Summary
Bibliographic notes
Exercises
29 Synchronizer design
29.1 Where are synchronizers used?
29.2 Brute-force synchronizer
29.3 The problem with multi-bit signals
29.4 FIFO synchronizer
Summary
Bibliographic notes
Exercises
Part VIII Appendix: VHDL coding style and syntax guide
Appendix A: VHDL coding style
A.1 Basic principles
A.2 All state should be in explicitly declared registers
A.3 Define combinational design entities so that they are easy to read
A.4 Assign all signals under all conditions

A.5 Keep design entities small
A.6 Large design entities should be structural
A.7 Use descriptive signal names
A.8 Use symbolic names for subfields of signals
A.9 Define constants
A.10 Comments should describe intention and give rationale, not state the
obvious
A.11 Never forget you are defining hardware
A.12 Read and be a critic of VHDL code
Appendix B: VHDL syntax guide
B.1 Comments, identifiers, and keywords
B.2 Types
B.2.1 Std_logic
B.2.2 Boolean
B.2.3 Integer
B.2.4 Std_logic_vector
B.2.5 Subtypes
B.2.6 Enumeration
B.2.7 Arrays and records
B.2.8 Qualified expressions
B.3 Libraries, packages, and using multiple files
B.4 Design entities
B.5 Slices, concatenation, aggregates, operators, and expressions
B.6 Concurrent statements
B.6.1 Concurrent signal assignment
B.6.2 Component instantiation
B.7 Multiple signal drivers and resolution functions
B.8 Attributes
B.9 Process statements
B.9.1 The process sensitivity list and execution timing
B.9.2 Wait and report statements
B.9.3 If statements
B.9.4 Case and matching case statements
B.9.5 Signal and variable assignment statements
B.10 Synthesizable process statements

B.10.1 Type 1: purely combinational
B.10.2 Type 2: edge-sensitive
B.10.3 Type 3: edge-sensitive with asynchronous reset
References
Index of VHDL design entities
Subject index

PREFACE
This book is intended to teach an undergraduate student to understand and
design digital systems. It teaches the skills needed for current industrial digital
system design using a hardware description language (VHDL) and modern CAD
tools. Particular attention is paid to system-level issues, including factoring and
partitioning digital systems, interface design, and interface timing. Topics
needed for a deep understanding of digital circuits, such as timing analysis,
metastability, and synchronization, are also covered. Of course, we cover the
manual design of combinational and sequential logic circuits. However, we do
not dwell on these topics because there is far more to digital system design than
designing such simple modules.
Upon completion of a course using this book, students should be prepared to
practice digital design in industry. They will lack experience, but they will have
all of the tools they need for contemporary practice of this noble art. The
experience will come with time.
This book has grown out of more than 25 years of teaching digital design to
undergraduates (CS181 at Caltech, 6.004 at MIT, EE121 and EE108A at
Stanford). It is also motivated by 35 years of experience designing digital
systems in industry (Bell Labs, Digital Equipment, Cray, Avici, Velio
Communications, Stream Processors, and NVIDIA). It combines these two
experiences to teach what students need to know to function in industry in a
manner that has been proven to work on generations of students. The VHDL
guide in Appendix B is informed by nearly a decade of teaching VHDL to
undergraduates at UBC (EECE 353 and EECE 259).
We wrote this book because we were unable to find a book that covered the
system-level aspects of digital design. The vast majority of textbooks on this
topic teach the manual design of combinational and sequential logic circuits and
stop. While most texts today use a hardware description language, the vast
majority teach a TTL-esque design style that, while appropriate in the era of
7400 quad NAND gate parts (the 1970s), does not prepare a student to work on
the design of a three-billion-transistor GPU. Today’s students need to understand
how to factor a state machine, partition a design, and construct an interface with
correct timing. We cover these topics in a simple way that conveys insight
without getting bogged down in details.

Outline of the book
A flow chart showing the organization of the book and the dependences between
chapters is shown in Figure 1. The book is divided into an introduction, five
main sections, and chapters about style and verification. Appendix B provides a
summary of VHDL-2008 syntax.

Figure 1. Organization of the book and dependences between chapters.
Part I Introduction
Chapter 1 introduces digital systems. It covers the representation of information

as digital signals, noise margins, and the role of digital logic in the modern
world. The practice of digital design in industry is described in Chapter 2. This
includes the design process, modern implementation technologies, computer-
aided design tools, and Moore’s law.
Part II Combinational logic
Chapters 3–9 deal with combinational logic circuits – digital circuits whose
outputs depend only on the current values of their inputs. Boolean algebra, the
theoretical underpinning of logic design, is discussed in Chapter 3. Switching
logic and CMOS gate circuits are introduced in Chapter 4. Chapter 5 introduces
simple models for calculating the delay and power of CMOS circuits. Manual
methods for designing combinational circuits from basic gates are described in
Chapter 6. Chapter 7 discusses how to automate the design process by coding
behavioral descriptions of combinational logic in the VHDL hardware
description language. Building blocks for combinational logic, decoders,
multiplexers, etc. are described in Chapter 8, and several examples of
combinational design are given in Chapter 9.
Part III Arithmetic circuits
Chapters 10–13 describe number systems and arithmetic circuits. Chapter 10
describes the basics of number representation and arithmetic circuits that
perform the four functions +, −, ×, and ÷ on integers. Fixed-point and floating-
point number representations and their accuracy are presented in Chapter 11.
This chapter includes a discussion of floating-point unit design. Techniques for
building fast arithmetic circuits, including carry look-ahead, Wallace trees, and
Booth recoding, are described in Chapter 12. Finally, examples of arithmetic
circuits and systems are presented in Chapter 13.
Part IV Synchronous sequential logic
Chapters 14–19 describe synchronous sequential logic circuits – sequential
circuits whose state changes only on clock edges – and the process of designing
finite-state machines. After describing the basics in Chapter 14, timing
constraints are covered in Chapter 15. The design of datapath sequential circuits
– whose behavior is described by an equation rather than a state table – is the
topic of Chapter 16. Chapter 17 describes how to factor complex state machines

into several smaller, simpler state machines. The concept of stored program
control, and how to build finite-state machines using microcoded engines, is
described in Chapter 18. This section closes with a number of examples in
Chapter 19.
Part V Practical design
Chapter 20 and the Appendix discuss two important aspects of working on
digital design projects. The process of verifying the correctness of logic and
testing that it works after manufacturing are the topics of Chapter 20. The
Appendix teaches the student proper VHDL coding style. It is a style that is
readable, maintainable, and enables CAD tools to produce optimized hardware.
Students should read this chapter before, during, and after writing their own
VHDL.
Part VI System design
Chapters 21–25 discuss system design and introduce a systematic method for the
design and analysis of digital systems. A six-step process for system design is
introduced in Chapter 21. System-level timing and conventions for the timing of
interfaces are discussed in Chapter 22. Chapter 23 describes pipelining of
modules and systems, and includes several example pipelines. System
interconnects including buses, crossbar switches, and networks are described in
Chapter 24. A discussion of memory systems is given in Chapter 25.
Part VII Asynchronous logic
Chapters 26–29 discuss asynchronous sequential circuits – circuits whose state
changes in response to any input change, without waiting for a clock edge. The
basics of asynchronous design including flow-table analysis and synthesis and
the problem of races are introduced in Chapter 26. Chapter 27 gives an example
of these techniques, analyzing flip-flops and latches as asynchronous circuits.
The problem of metastability and synchronization failure is described in Chapter
28. This section, and the book, closes with a discussion of synchronizer design –
how to design circuits that safely move signals across asynchronous boundaries
– in Chapter 29.
hi
i
hi b
k

Teaching using this book
This book is suitable for use in a one-quarter (10-week) or one-semester (13-
week) introductory course on digital systems design. It can also be used as the
primary text of a second, advanced, course on digital systems.
There need not be any formal prerequisites for a course using this book. A
good understanding of high-school-level mathematics is the only required
preparation. Except for Chapters 5 and 28, the only place derivatives are used,
the material does not require a knowledge of calculus. At Stanford, E40
(Introduction to Electrical Engineering) is a prerequisite for EE108A (Digital
Systems I), but students often take EE108A without the prerequisite with no
problems.
A one-quarter introductory course on digital systems design covers the
material in Chapters 1, 3, 6, 7, 8, 10, (11), 14, 15, 16, (17), 21, 22, (23), 26, 28,
and 29. For the one-quarter course we omit the details of CMOS circuits
(Chapters 4 and 5), microcode (Chapter 18), and the more advanced systems
topics (Chapters 24 and 25). The three chapters in parentheses are optional and
can be skipped to give a slightly slower-paced course. In offerings of this course
at Stanford, we typically administer two midterm examinations: one after
covering Chapter 11, and the second after covering Chapter 22.
A one-semester introductory course on digital systems can use the three
additional weeks to include the material on CMOS circuits and a few of the more
advanced systems topics. A typical semester-long course covers the material in
Chapters 1, 2, 3, 4, (5), 6, 7, 8, 9, 10, (11), 13, 14, 15, 16, (17), (18), (19), 21, 22,
(23), (24), (25), 26, (27), 28, and 29.
This book can be used for an advanced course on digital systems design. Such
a course covers the material from the introductory courses in more depth and
includes advanced topics that were omitted from the introductory courses. Such
a course usually includes a significant student project.
Materials
To support teaching with this book, the course website includes teaching
materials: lecture slides, a series of laboratories, and solutions to selected
exercises. The laboratories are intended to reinforce the material in the course
and can be performed via simulation or a combination of simulation and
implementation on FPGAs.

ACKNOWLEDGMENTS
We are deeply indebted to the many people who have made contributions to the
creation of this book. This book has evolved over many years of teaching digital
design at MIT (6.004) and Stanford (EE108A). We thank the many generations
of students who took early versions of this class and provided feedback that led
to constant refinement of our approach. Professors Subhasish Mitra, Phil Levis,
and My Le have taught at Stanford using early versions of this material, and
have provided valuable comments that led to many improvements. The course
and book benefited from contributions by many great teaching assistants over
the years. Paul Hartke, David Black-Shaffer, Frank Nothaft, and David
Schneider deserve special thanks. Frank also deserves thanks for contributing to
the exercise solutions. Teaching 6.004 at MIT with Gill Pratt, Greg
Papadopolous, Steve Ward, Bert Halstead, and Anant Agarwal helped develop
the approach to teaching digital design that is captured in this book. An early
draft of the VHDL edition of this book was used for EECE 259 at the University
of British Columbia (UBC). We thank the students who provided feedback that
led to refinements in this version. The treatment of VHDL-2008 in Appendix B
has been informed by several years of experience teaching earlier VHDL
versions in EECE 353 at UBC using a set of slides originally developed by
Professor Steve Wilton. Steve also provided helpful feedback on an early draft
of the VHDL edition.
Julie Lancashire and Kerry Cahill at Cambridge University Press helped
throughout the original Verilog edition, and Julie Lancashire, Karyn Bailey, and
Jessica Murphy at Cambridge Press helped with the current VHDL edition. We
thank Irene Pizzie for careful copy editing of the original Verilog edition and
Abigail Jones for shepherding the original Verilog edition through the
sometimes difficult passage from manuscript to finished project. We thank
Steven Holt for careful copy editing of the present VHDL edition you see before
you.
Finally, our families: Sharon, Jenny, Katie, and Liza Dally, and Jacki Armiak,
Eric Harting, and Susanna Temkin, and Dayna and Ethan Aamodt have offered
tremendous support and made significant sacrifices so we could have time to
devote to writing.

Part I
Introduction

1
The digital abstraction
Digital systems are pervasive in modern society. Some uses of digital
technology are obvious – such as a personal computer or a network switch.
However, there are also many other applications of digital technology. When
you speak on the phone, in almost all cases your voice is being digitized and
transmitted via digital communications equipment. When you listen to an
audio file, the music, recorded in digital form, is processed by digital logic to
correct errors and improve the audio quality. When you watch TV, the image
is transmitted in a digital format and processed by digital electronics. If you
have a DVR (digital video recorder) you are recording video in digital form.
DVDs are compressed digital video recordings. When you play a DVD or
stream a movie, you are digitally decompressing and processing the video.
Most communication radios, such as cell phones and wireless networks, use
digital signal processing to implement their modems. The list goes on.
Most modern electronics uses analog circuitry only at the edge – to
interface to a physical sensor or actuator. As quickly as possible, signals from
a sensor (e.g., a microphone) are converted into digital form. All real
processing, storage, and transmission of information is done digitally. The
signals are converted back to analog form only at the output – to drive an
actuator (e.g., a speaker) or control other analog systems.
Not so long ago, the world was not as digital. In the 1960s digital logic was
found only in expensive computer systems and a few other niche applications.
All TVs, radios, music recordings, and telephones were analog.
The shift to digital was enabled by the scaling of integrated circuits. As
integrated circuits became more complex, more sophisticated signal
processing became possible. Complex techniques such as modulation, error
correction, and compression were not feasible in analog technology. Only
digital logic, with its ability to perform computations without accumulating
noise and its ability to represent signals with arbitrary precision, could
implement these signal processing algorithms.
In this book we will look at how the digital systems that form such a large
part of our lives function and how they are designed.

1.1 DIGITAL SIGNALS
Digital systems store, process, and transport information in digital form. Digital
information is represented as discrete symbols that are encoded into ranges of a
physical quantity. Most often we represent information with just two symbols,
“0” and “1,” and encode these symbols into voltage ranges as shown in Figure
1.1. Any voltage in the ranges labeled “0” and “1” represents a “0” or “1”
symbol, respectively. Voltages between these two ranges, in the region labeled
“?,” are undefined and represent neither symbol. Voltages outside the ranges,
below the “0” range, or above the “1” range are not allowed and may
permanently damage the system if they occur. We call a signal encoded in the
manner shown in Figure 1.1 a binary signal because it has two valid states.
Figure 1.1. Encoding of two symbols, 0 and 1, into voltage ranges. Any voltage in the range labeled 0 is
considered to be a 0 symbol. Any voltage in the range labeled 1 is considered to be a 1 symbol. Voltages
between the 0 and 1 ranges (the ? range) are undefined and represent neither symbol. Voltages outside the 0
and 1 ranges may cause permanent damage to the equipment receiving the signals.
Table 1.1 shows the JEDEC JESD8-5 standard [62] for encoding a binary
digital signal in a system with a 2.5 V power supply. Using this standard, any
signal with a voltage between −0.3 V and 0.7 V is considered to be a “0,” and a
signal with a voltage between 1.7 V and 2.8 V is considered to be a “1.” Signals
that do not fall into these two ranges are undefined. If a signal is below −0.3 V
or above 2.8 V, it may cause damage.1
Table 1.1. Encoding of binary signals for 2.5 V LVCMOS logic
Signals with voltage in [−0.3, 0.7] are considered to be a 0. Signals with voltage in [1.7, 2.8]
areconsideredtobea1.Voltagesin[0.7, 1.7] are undefined. Voltages outside [−0.3, 2.8] may cause permanent
damage.
Parameter
Value
Description
Vmin
−0.3 V
absolute minimum voltage below which damage
occurs
V0
  0.0 V
nominal voltage representing logic “0”
VOL
  0.2 V
maximum output voltage representing logic “0”
VIL
  0.7 V
maximum voltage considered to be a logic “0” by a
module input
minim m oltage considered to be a logic “1” b a

VIH
  1.7 V
minimum voltage considered to be a logic “1” by a
module input
VOH
  2.1 V
minimum output voltage representing logic “1”
V1
  2.5 V
nominal voltage representing logic “1”
Vmax
  2.8 V
absolute maximum voltage above which damage
occurs
Digital systems are not restricted to binary signals. One can generate a digital
signal that can take on three, four, or any finite number of discrete values.
However, there are few advantages to using more than two values, and the
circuits that store and operate on binary signals are simpler and more robust than
their multi-valued counterparts. Thus, except for a few niche applications, binary
signals are universal in digital systems today.
Digital signals can also be encoded using physical quantities other than
voltage. Almost any physical quantity that can be easily manipulated and sensed
can be used to represent a digital signal. Systems have been built using electrical
current, air or fluid pressure, and physical position to represent digital signals.
However, the tremendous capability of manufacturing complex systems as low-
cost CMOS integrated circuits has made voltage signals universal.
1.2 DIGITAL SIGNALS TOLERATE NOISE
The main reason why digital systems have become so pervasive, and what
distinguishes them from analog systems, is that they can process, transport, and
store information without it being distorted by noise. This is possible because of
the discrete nature of digital information. A binary signal represents either a 0 or
a 1. If you take the voltage that represents a 1, V1, and disturb it with a small
amount of noise, , it still represents a 1. There is no loss of information with the
addition of noise, until the noise becomes large enough to push the signal out of
the 1 range. In most systems it is easy to bound the noise to be less than this
value.
Figure 1.2 compares the effect of noise on an analog system (Figure 1.2(a))
and on a digital system (Figure 1.2(b)). In an analog system, information is
represented by an analog voltage, V. For example, we might represent
temperature (in degrees Fahrenheit) with voltage according to the relation V =
0.2(T−68). So a temperature of 72.5 °F is represented by a voltage of 900 mV.
This representation is continuous; every voltage corresponds to a different

temperature. Thus, if we disturb the signal V with a noise voltage , the resulting
signal V +  corresponds to a different temperature. If  = 100 mV, for example,
the new signal V +  = 1 V corresponds to a temperature of 73 °F (T = 5V + 68),
which is different from the original temperature of 72.5 °F.
Figure 1.2. Effects of noise in analog and digital systems. (a) In an analog system, perturbing a signal V by
noise  results in a degraded signal V + . Operating on this degraded signal with a function f gives a result
f(V + ) that is different from the result of operating on the signal without noise. (b) In a digital system,
adding noise  to a signal V1 representing a symbol, 1, gives a signal V1 +  that still represents the symbol
1. Operating on this signal with a function f gives the same result f(V1) as operating on the signal without
the noise.
In a digital system, each bit of the signal is represented by a voltage, V1 or V0
depending on whether the bit is 1 or 0. If a noise source perturbs a digital 1
signal V1, for example, as shown in Figure 1.2(b), the resulting voltage V1 + 
still represents a 1 and applying a function to this noisy signal gives the same
result as applying a function to the original signal. Moreover, if a temperature of
72 °F is represented by a three-bit digital signal with value 010 (see Figure
1.7(c)), the signal still represents a temperature of 72 °F even after all three bits
of the signal have been disturbed by noise – as long as the noise is not so great as
to push any bit of the signal out of the valid range.
To prevent noise from accumulating to the point where it pushes a digital
signal out of the valid 1 or 0 range, we periodically restore digital signals as
illustrated in Figure 1.3. After transmitting, storing, and retrieving, or operating
on a digital signal, it may be disturbed from its nominal value Va (where a is 0 or
1) by some noise i. Without restoration (Figure 1.3(a)), the noise accumulates
after each operation and eventually will overwhelm the signal. To prevent
accumulation, we restore the signal after each operation. The restoring device,

which we call a buffer, outputs V0 if its input lies in the 0 range and V1 if its
output lies in the 1 range. The buffer, in effect, restores the signal to be a pristine
0 or 1, removing any additive noise.
Figure 1.3. Restoration of digital signals. (a) Without restoration, signals accumulate noise and will
eventually accumulate enough noise to cause an error. (b) By restoring the signal to its proper value after
each operation, noise is prevented from accumulating.
This capability to restore a signal to its noiseless state after each operation
enables digital systems to carry out complex high-precision processing. Analog
systems are limited to performing a small number of operations on relatively
low-precision signals because noise is accumulated during each operation. After
a large number of operations, the signal is swamped by noise. Since all voltages
are valid analog signals, there is no way to restore the signal to a noiseless state
between operations. Analog systems are also limited in precision. They cannot
represent a signal with an accuracy finer than the background noise level. Digital
systems can perform an indefinite number of operations, and, as long as the
signal is restored after each operation, no noise is accumulated. Digital systems
can also represent signals of arbitrary precision without corruption by noise.2
In practice, buffers and other restoring logic devices do not guarantee output
voltages of exactly V0 or V1. Variations in power supplies, device parameters,
and other factors lead the outputs to vary slightly from these nominal values. As
illustrated in Figure 1.4(b), all restoring logic devices guarantee that their 0 (1)
outputs fall into a 0 (1) range that is narrower than the input 0 (1) range.
Specifically, all 0 signals are guaranteed to be less than VOL and all 1 signals are
guaranteed to be greater than VOH. To ensure that the signal is able to tolerate
some amount of noise, we insist that VOL < VIL and that VIH < VOH. For example,

the values of VOL and VOH for 2.5 V LVCMOS are shown in Table 1.1. We can
quantify the amount of noise that can be tolerated as the noise margins of the
signal:
VNMH = VOH − VIH,
VNML = VIL − VOL.
(1.1)
Figure 1.4. Input and output voltage ranges. (a) Inputs of logic modules interpret signals as shown in Figure
1.1. (b) Outputs of logic modules restore signals to narrower ranges of valid voltages.
While one might assume that a bigger noise margin would be better, this is not
necessarily the case. Most noise in digital systems is induced by signal
transitions, and hence tends to be proportional to the signal swing. Thus, what is
really important is the ratio of the noise margin to the signal swing, VNM/(V1 −
V0), rather than the absolute magnitude of the noise margin.
Figure 1.5 shows the relationship between DC input voltage and output
voltage for a logic module. The horizontal axis shows the module input voltage
and the vertical axis shows the module output voltage. To conform to our
definition of restoring, the transfer curve for all modules must lie entirely within
the shaded region of the figure so that an input signal in the valid 0 or 1 range
will result in an output signal in the narrower output 0 or 1 range. Non-inverting
modules, like the buffer of Figure 1.3, have transfer curves similar to the solid
line. Inverting modules have transfer curves similar to the dashed line. In either
case, gain is required to implement a restoring logic module. The absolute value
of the maximum slope of the signal is bounded by
(1.2)

Figure 1.5. DC transfer curve for a logic module. For an input in the valid ranges, Vmin ≤ Vin ≤ VIL or VIH ≤
Vin ≤ Vmax, the output must be in the valid output ranges Vout ≤ VOL or VOH ≤ Vout. Thus, all valid curves
must stay in the shaded region. This requires that the module have gain > 1 in the invalid input region. The
solid curve shows a typical transfer function for a non-inverting module. The dashed curve shows a typical
transfer function for an inverting module.
From this we conclude that restoring logic modules must be active elements
capable of providing gain.
EXAMPLE 1.1 Noise toleration
Figure 1.6 illustrates a noise model where noise (modeled by the two voltage sources) can displace the
voltage on the output of a buffer Va by up to 0.5 V in the positive direction and up to 0.4 V in the negative
direction. That is, the additive noise voltage Vn ∈ [−0.4, 0.5]. For an output voltage of Va, the voltage on the
input of the following buffer is Va + Vn ∈ [Va − 0.4, Va + 0.5]. Using this noise model and the input and
damage constraints of Table 1.1, calculate the range of legal values both for low and for high outputs.
Figure 1.6. Noise model for Example 1.1.
There are four constraints that must be satisfied when calculating the output voltage. A low output (VOL)
must give an input voltage that is detected as low (VOL+Vn ≤ VIL) and not damage the chip (VOL−Vn ≥
Vmin). The high voltage (VOH) cannot damage the chip (VOH+Vn ≤ Vmax) and must be sensed as high (VOH

− Vn ≥ VIH). So we have
The output voltage from each buffer must be between 0.1 V and 0.2 V to represent “0” and between 2.1 V
and 2.3 V to represent “1.” Although not acceptable with this noise model, almost all circuits will run with
nominal output voltages of 0 V and VDD (the supply) to represent 0 and 1.
1.3 DIGITAL SIGNALS REPRESENT COMPLEX
DATA
Some information is naturally binary in nature and can be represented with a
single binary digital signal (Figure 1.7(a)). Truth propositions or predicates fall
into this category. For example, a single signal can indicate that a door is open, a
light is on, a seatbelt is buckled, or a button is pressed.

Figure 1.7. Representing information with digital signals. (a) Binary-valued predicates are represented by a
single-bit signal. (b) Elements of sets with more than two elements are represented by a group of signals. In
this case one of eight colors is denoted by a three-bit signal Color2:0. (c) A continuous quantity, like
temperature, is quantized, and the resulting set of values is encoded by a group of signals. Here one of eight
temperatures can be encoded as a three-bit signal TempA2:0 or as a seven-bit thermometer-coded signal
TempB6:0 with at most one transition from 0 to 1.
By convention, we often consider a signal to be “true” when the voltage is
high. This need not be the case, as nothing precludes using low voltages to
represent the above conditions. Throughout the book we will try to make it clear
when we are using this low–true convention. The signal description in such
cases will often be changed instead, e.g., “a seatbelt is unbuckled.”
Often we need to represent information that is not binary in nature: a day of
the year, the value and suit of a playing card, the temperature in a room, or a
color. We encode information with more than two natural states using a group of
binary signals (Figure 1.7(b)). The elements of a set with N elements can be
represented by a signal with n = ⌈log2 N⌉ bits. For example, the eight colors
shown in Figure 1.7(b) can be represented by three one-bit signals, Color0,
Color1, and Color2. For convenience we refer to this group of three signals as a
single multi-bit signal Color2:0. In a circuit or schematic diagram, rather than
drawing three lines for these three signals, we draw a single line with a slash
indicating that it is a multi-bit signal and the number “3” near the slash to
indicate that it is composed of three bits.3

Continuous quantities, such as voltage, temperature, and pressure, are encoded
as digital signals by quantizing them. This reduces the problem to one of
representing elements of a set. Suppose, for example, that we need to represent
temperatures between 68 °F and 82 °F and that it suffices to resolve the
temperature to an accuracy of 2 °F. We quantize this temperature range into
eight discrete values as shown in Figure 1.7(c). We can represent this range with
binary weighted signals TempA2:0, where the temperature represented is
(1.3)
Alternatively, we can represent this range with a seven-bit thermometer-coded
signal TempB6:0:
(1.4)
Many other encodings of this set are possible. A designer chooses a
representation depending on the task at hand. Some sensors (e.g., thermometers)
naturally generate thermometer-coded signals. In some applications it is
important that adjacent codes differ in only a single bit. At other times, cost and
complexity are reduced by minimizing the number of bits needed to represent an
element of the set. We will revisit digital representations of continuous quantities
when we discuss numbers and arithmetic in Chapter 10.
1.3.1 Representing the day of the year
Suppose we wish to represent the day of the year with a digital signal. (We will
ignore for now the problem of leap years.) The signal is to be used for operations
that include determining the next day (i.e., given the representation of today,
compute the representation of tomorrow), testing whether two days are in the
same month, determining whether one day comes before another, and whether a
day is a particular day of the week.
One approach is to use a ⌈log2 365⌉ = 9-bit signal that represents the integers
from 0 to 364, where 0 represents January 1 and 364 represents December 31.
This representation is compact (you cannot do it in fewer than nine bits), and it

makes it easy to determine whether one day comes before another. However, it
does not facilitate the other two operations we need to perform. To determine the
month a day corresponds to requires comparing the signal with ranges for each
month (January is 0–30, February is 31–58, etc.). Determining the day of the
week requires taking the date integer modulo 7.
A better approach, for our purposes, is to represent the signal as a four-bit
month field (January = 1, December = 12) and a five-bit day field (1–31, leaving
0 unused). With this representation, for example, July 4 (US Independence Day)
is 0111 001002. The 01112 = 7 represents July and 001002 = 4 represents the
day. With this representation we can still directly compare whether one day
comes before another and also easily test whether two days are in the same
month by comparing the upper four bits. However, it is even more difficult with
this representation to determine the day of the week.
To solve the problem of the day of the week, we use a redundant
representation that consists of a four-bit month field (1–12), a five-bit day of the
month field (1–31), and a three-bit day of the week field (Sunday = 1, . . . ,
Saturday = 7). With this representation, July 4 (which is a Monday in 2016)
would be represented as the 12-bit binary number 0111 00100 100. The 0111
means month 7, or July, 00100 means day 4 of the month, and 100 means day 4
of the week, or Wednesday.
1.3.2 Representing subtractive colors
We often pick a representation to simplify carrying out operations. For example,
suppose we wish to represent colors using a subtractive system. In a subtractive
system we start with white (all colors) and filter this with one or more primary
color (red, blue, or yellow) transparent filters. For example, if we start with
white then use a red filter we get red. If we then add a blue filter we get purple,
and so on. By filtering white with the primary colors we can generate the derived
colors purple, orange, green, and black.
One possible representation for colors is shown in Table 1.2. In this
representation we use one bit to denote each of the primary colors. If this bit is
set, a filter of that primary color is in place. We start with white represented as
all zeros – no filters in place. Each primary color has exactly one bit set – only
the filter of that primary color in place. The derived colors orange, purple, and
green each have two bits set since they are generated by two primary color
filters. Finally, black is generated by using all three filters, and hence has all
three bits set.

Table 1.2. Three-bit representation of colors
This can be derived by filtering white light with zero or more primary colors; the representation is chosen
so that mixing two colors is the equivalent of OR-ing the representations together
Color
Code
White
000
Red
001
Yellow
010
Blue
100
Orange
011
Purple
101
Green
110
Black
111
It is easy to see that, using this representation, the operation of mixing two
colors together (adding two filters) is equivalent to the operation of taking the
logical OR of the two representations. For example, if we mix red 001 with blue
100 we get purple 101, and 001 ∨ 100 = 101.4
1.4 DIGITAL LOGIC FUNCTIONS
Once we have represented information as digital signals, we use digital logic
circuits to compute logical functions of our signals. That is, the logic computes
an output digital signal that is a function of the input digital signal(s).
Suppose we wish to build a thermostat that turns on a fan if the temperature is
higher than a preset limit. Figure 1.8 shows how this can be accomplished with a
single comparator, a digital logic block that compares two numbers and outputs
a binary signal that indicates whether one is greater than the other. (We will
examine how to build comparators in Section 8.6.) The comparator takes two
temperatures as input: the current temperature from a temperature sensor and the
preset limit temperature. If the current temperature is greater than the limit
temperature, the output of the comparator goes high, turning the fan on. This
digital thermostat is an example of a combinational logic circuit, a logic circuit
whose output depends only on the current state of its inputs. We will study
combinational logic in Chapters 6–13.

Figure 1.8. A digital thermostat is realized with a comparator. The comparator turns a fan on when the
current temperature is larger than a preset temperature.
EXAMPLE 1.2 Current day circuit
Suppose we wish to build a calendar circuit that always outputs the current day in the month, day of month,
day of week representation described in Section 1.3.1. This circuit, shown in Figure 1.9, requires storage. A
register stores the current day (current month, day of month, and day of week), making it available on its
output and ignoring its input until the clock rises. When the clock signal rises, the register updates its
contents with the value on its input and then resumes its storage function.5 A logic circuit computes the
value of tomorrow from the value of today. This circuit increments the two day fields and takes appropriate
action if they overflow. We present the implementation of this logic circuit in Section 9.2. Once a day (at
midnight) the clock signal rises, causing the register to update its contents with tomorrow’s value. Our
digital calendar is an example of a sequential logic circuit. Its output depends not only on current inputs (the
clock), but also on the internal state (today), which reflects the value of past inputs. We will study
sequential logic in Chapters 14–19.
Figure 1.9. A digital calendar outputs the current day in the month, day of month, day of week format. A
register stores the value of the current day (today). A logic circuit computes the value of the next day
(tomorrow).

We often build digital systems by composing subsystems. Or, from a different
perspective, we design a digital system by partitioning it into combinational and
sequential subsystems and then designing each subsystem. As a very simple
example, suppose we want to modify our thermostat so that the fan does not run
on Sundays. We can do this by combining our thermostat circuit with our
calendar circuit, as shown in Figure 1.10. The calendar circuit is used only for its
day of week (DoW) output. This output is compared with the constant Sunday =
1. The output of the comparator is true if today is Sunday (ItsSunday). An
inverter, also called a NOT gate, complements this value. Its output
(ItsNotSunday) is true if it is not Sunday. Finally, an AND gate combines the
inverter output with the output of the thermostat. The output of the AND gate is
true only when the temperature is high AND it’s not Sunday. System-level
design – at a somewhat higher level than this simple example – is the topic of
Chapters 21–25.
Figure 1.10. By combining our thermostat and calendar circuits, we realize a circuit that turns the fan on
when the temperature is high, except on Sundays, when the fan remains off.
1.5 VHDL DESCRIPTION OF DIGITAL CIRCUITS
AND SYSTEMS
VHDL is a hardware description language (HDL) that is used to describe digital
circuits and systems. Once a system has been described in VHDL, we can
simulate its operation using a VHDL simulator. We can also synthesize the
circuit using a synthesis program (similar to a compiler) to convert the VHDL
description to a gate-level description to be mapped to standard cells or an
FPGA. VHDL and Verilog are the two HDLs in wide use today. Most chips and
systems in industry are designed by writing descriptions in one of these two

languages.
We will use VHDL throughout this book both to illustrate principles and also
to teach VHDL coding style. By the end of a course using this book, the reader
should be proficient in both reading and writing VHDL. Appendix A gives a
style guide for writing VHDL and Appendix B provides an overview of VHDL
syntax.
A VHDL description of our thermostat example is shown in Figure 1.11. Note
that this VHDL describes the behavior of the circuit but not how the circuit is
implemented. A synthesis program can transform this VHDL into hardware, but
neither the synthesis program nor that hardware can be said to “execute” the
VHDL. VHDL is a strongly typed language. This means that for each signal we
must explicitly declare a type indicating the representation of that signal. VHDL
includes a set of standard logic types defined by the IEEE 1164 standard. To
enable us to use them, the first line in the example specifies that our design will
use a VHDL library called IEEE. A library includes previously compiled VHDL
code organized in a set of packages. The second line, beginning with the
keyword use, is a use clause indicating that we wish to use all design units
defined in the package std_logic_1164 within the library IEEE. Our example
uses the types std_logic and std_logic_vector. The type std_logic
represents a single bit, which can take on values ’0’, ’1’ along with some
special values ’-’, ’Z’, ’X’, ’W’, ’L’, ’H’ and ’U’ that we will see are useful for
logic synthesis and/or simulation. The type std_logic_vector represents a
multi-bit signal, where each bit has type std_logic. Our thermostat will need to
compare the value of the current temperature against the preset temperature (e.g.,
using >).
Figure 1.11. VHDL description of our thermostat example.

In the example the thermostat is described using a VHDL design entity
consisting of two parts, an entity declaration and an architecture body. The
entity declaration defines the interface between the design entity and the outside
world, whereas the architecture body defines the internal operation of the design
entity.
The entity declaration begins with the keyword entity. In our example the
entity declaration indicates that the design entity’s name is THERMOSTAT. Note
that VHDL is case insensitive. For example, this means THERMOSTAT is
considered by the tools as identical if written all in lower case (thermostat) or
using mixed case (e.g., Thermostat). This case insensitivity applies both to
identifiers and to keywords. In Figure 1.11 we have used different capitalization
to emphasize VHDL’s case insensitivity. The inputs and outputs to the design
entity are specified in a port list that begins with the keyword port. The port list
contains three signals: presetTemp, currentTemp, and fanOn. The keyword in
indicates that the two temperature signals presentTemp and currentTemp are
inputs. These three-bit signals are declared to have type std_logic_vector and
can take on values between "000" and "111", representing the unsigned integers
between 0 and 7. The “(2 downto 0)” indicates that presentTemp has
subsignals presentTemp(2), presentTemp(1), and presentTemp(0). Here the
most significant bit is presentTemp(2). Note that we could have declared
presentTemp with “(0 to 2),” in which case the most significant bit would be
presentTemp(0). The keyword out indicates that the signal fanOn is an output
of the design entity. Since it represents a single bit, fanOn is declared with type
std_logic.
The architecture body begins with the keyword architecture followed by an
identifier for the architecture body, impl (short for “implementation”), then the
keyword of and then the name of the entity declaration this architecture body
corresponds to (Thermostat). Although most design entities have a single
architecture body, the VHDL language allows multiple architecture bodies, each
of which should have a unique identifier. Next are the keywords is and begin
followed by the code that defines the behavior of the architecture body. In this
example the architecture body consists of a single concurrent assignment
statement. The signal assignment compound delimiter, <=, indicates that the
expression on the right is assigned to the signal on the left. The keywords when
and else indicate that this is a conditional signal assignment statement. The
conditional signal assignment sets fanOn to logic value ’1’ whenever
currentTemp is greater than presetTemp and to ’0’ otherwise. The conditional
signal assignment statement ends with a semicolon (;).
The result of simulating this design entity with presetTemp "011" (i.e., 3) and

currentTemp sweeping from "000" to "111" is shown in Figure 1.12.
Figure 1.12. Result of simulating the VHDL of Figure 1.11 with presetTemp = "011" (i.e., 3) and
currentTemp sweeping from "000" to "111" (i.e., 7).
Despite the unfamiliar syntax, at first glance VHDL code may look somewhat
like a conventional programming language such as C or Java. However, VHDL,
or any other HDL, is fundamentally different than a programming language. In a
programming language like C, only one statement is active at a time. Statements
are executed one at a time in sequence. In VHDL, on the other hand, all design
entities and all concurrent assignment statements in each component are active
all of the time. That is, all of the statements are executed all of the time.
It is very important in coding VHDL to keep in mind that the code is
ultimately being compiled into hardware. Each component instantiated adds a
hardware component to the design. Each assignment statement in each design
entity adds gates to each instance of that design entity. VHDL can be a
tremendous productivity multiplier – allowing the designer to work at a much
higher level than if the gates had to be manually synthesized. At the same time,
VHDL can be an impediment if its abstraction causes the designer to lose touch
with the end product and write an inefficient design.
1.6 DIGITAL LOGIC IN SYSTEMS
Most modern electronic systems, from cell phones to televisions to the
embedded engine controller in your car, have the form shown in Figure 1.13.
These systems are divided into an analog front end, one or more processors, and
fixed-function digital logic blocks. These components represent the hardware of
a system. Because analog circuitry accumulates noise and has limited levels of
integration, we use it as little as possible. In a modern system, analog circuitry is
limited to the periphery of the system and to signal conditioning and conversion

from analog to digital and vice versa.
Figure 1.13. A modern digital electronic system consists of an analog front end, one or more processors,
which perform the complex, but less demanding, parts of an application, and digital logic blocks that
perform the computationally intensive parts of the application.
Programmable processors, which are built using digital logic, perform the
system functions that are complex but not computationally intense. The
processor itself can be fairly simple; the complexity is in the software running on
the processor, which can involve millions of lines of code. Complex user
interfaces, system logic, undemanding applications, and other such functions are
implemented in software running on the processor. However, because the area
(and energy) required to implement a function on a processor is from 10 to 1000
times higher than that required to implement the function in a fixed-function
logic block, the most computationally demanding functions are implemented
directly in logic, not in software running on the processor.
The fixed-function logic blocks in a typical system perform most of the
system’s computation, as measured by the number of operations, but account for
only a small fraction of the system’s complexity, as measured by lines of code.
Fixed-function logic is used to implement functions such as radio modems,
video encoders and decoders, encryption and decryption functions, and other
such blocks. It is not unusual for a modem or codec to perform 1010 to 1011
operations per second while consuming the same amount of power as a

processor that is performing 108 to 109 operations per second. If you watch a
streaming video on your cell phone, most of the operations being performed are
taking place in the radio modem, which decodes the RF waveform into symbols,
and the video codec, which decodes those symbols into pixels. Very little
computation, relatively speaking, is taking place on the ARM processor that
controls the process.
This book deals with the design and analysis of digital logic. In the system of
Figure 1.13, digital logic can be found in all of the blocks, including in the glue
that connects them together. Digital logic controls, sequences, calibrates, and
corrects the A/D and D/A converters in the analog front end. The processor,
while its function is defined by software, is built from digital logic. Digital logic
implements the fixed-function blocks. Finally, digital logic implements the buses
and networks that allow these blocks to communicate with one another.
Digital logic is the foundation on which modern electronic systems are built.
When you finish this book, you will have a basic understanding of this
foundational technology.
Summary
This chapter has given you an overview of digital design. We have seen that
representing signals digitally makes them tolerant of noise. Unless a noise
margin is exceeded, a digital signal corrupted by noise can be restored to its
original state. This enables us to perform complex calculations without
accumulating noise.
Information is represented as digital signals. Truth propositions, e.g., “the
door is open,” have just two values and thus can be directly represented with a
digital signal. We represent elements of a set, e.g., the day of the week, with a
multi-bit digital signal by assigning a binary code to each element of the set.
Continuous values, such as the voltage on a wire or the temperature in a room,
are represented by first quantizing the value – mapping a continuous range onto
a finite number of discrete steps – and then representing these steps as elements
of a set.
Digital logic circuits perform logical functions – computing digital output
signals whose values are functions of other digital signals. A combinational
logic circuit computes an output that is only a function of its present input. A
sequential logic circuit includes state feedback, and computes an output that is a
function not only of its current input, but also of its state and hence, indirectly, of
past inputs.
We describe digital logic functions in the VHDL hardware description

language for purposes of simulation and synthesis. We can simulate a circuit
described in VHDL, determining its response to a test input, to verify its
behavior. Once verified, we can synthesize the VHDL description into an actual
circuit for implementation. While VHDL at first glance looks a lot like a
conventional programming language, it is quite different. A conventional
program describes a step-by-step process where one line of the program is
executed at a time; however, a VHDL description describes hardware, where all
modules are executed simultaneously all of the time. A style guide for VHDL is
given in the Appendix.
Digital logic design is important because it forms the foundation of modern
electronic systems. These systems consist of analog front ends, one or more
processors, and digital fixed-function logic. Digital logic is used both to
implement the processors – which perform the functions that are complex but
not computationally intense – and the fixed-function logic – which is where most
of the computation occurs.
BIBLIOGRAPHIC NOTES
Charles Babbage is credited with designing the first calculating machines: his
difference engines [5]. Although he designed his Difference Engine No. 2 in the
1840s, it was complex and not completely built until 2002 [105]. He also
planned an even more complex Analytical Engine with many similarities to
modern computers [18]. Other mechanical calculators existed by the early 1900s.
John Atanasoff was ruled by the US court system6 to have invented the first
digital computer at Iowa State in 1940–41. Atanasoff writes about his invention
40 years later in ref. [4].
Robert Noyce (biography [11]) and Jack Kilby were co-inventors of the
integrated circuit [89]. After leaving Fairchild Semiconductor, Noyce founded
Intel with Gordon Moore. While at Intel, Moore made an observation about the
growth of the density of transistors on an integrated circuit. This observation,
Moore’s law [84], of exponential growth has held for over 40 years.
One of the first examples of the high-level synthesis tools was Berkeley’s
BDSyn [99]. For further information about the VHDL language, please refer to
later chapters of this book, or the numerous online resources about the language.
Exercises
1.1 Noise margins, I. Suppose you have a module that uses the encoding

described in Table 1.1 but you have freedom to choose either (VOL, VOH) =
(0.3, 2.2) or (VOL, VOH) = (0.1, 2.1). Which of these output ranges would
you choose and why?
1.2 Noise margins, II. Two wires have been placed close together on a chip.
They are so close, in fact, that the larger wire (the aggressor) couples to the
smaller wire (the victim) and causes the voltage on the victim wire to
change. Using the data from Table 1.1, determine the following.
(a) If the victim wire is at VOL, what is the most the aggressor can push it
down without causing a problem?
(b) If the victim wire is at 0 V, what is the most the aggressor can push it
down without causing a problem?
(c) If the victim wire is at VOH, what is the most the aggressor can push it
down without causing a problem?
(d) If the victim wire is at V1, what is the most the aggressor can push it up
without causing a problem?
1.3 Power-supply noise. Two systems, A and B, use the encoding of Table 1.1
to send logic signals to one another. Suppose there is a voltage shift
between the two systems’ power supplies so that all voltages in A are VN
higher than in B. A voltage of Vx in system A appears as a voltage of Vx +
VN in system B. A voltage of Vx in system B appears as a voltage of Vx −VN
in system A. Assuming that there are no other noise sources, over what
range of VN will the system operate properly?
1.4 Ground noise. A logic family has signal levels as shown in Table 1.3. We
connect device A’s output to B’s inputs using this logic family. All signal
levels are relative to the local ground. How much can the ground voltages
of the two devices (GNDA and GNDB) differ before an error occurs?
Compute the difference both for how much higher GNDA can be relative
to GNDB and for how much lower GNDA can be relative to GNDB.
Table 1.3. Voltage levels for Exercise 1.4
Parameter
Value
VOL
0.1 V
VIL
0.4 V
VIH
0.6 V
VOH
0.8 V

1.5 Proportional signal levels. A logic device encodes signals with levels
proportional to its power supply voltage (VDD) according to Table 1.4.
Table 1.4. Voltage levels for Exercise 1.5
Parameter
Value
VOL
0.1VDD
VIL
0.4VDD
VIH
0.6VDD
VOH
0.9VDD
Suppose two such logic devices A and B send signals to one another and
the supply of device A is VDDA = 1.0 V. Assuming that there are no other
noise sources and that the two devices have a common ground (i.e., 0 V is
the same level in both devices), what is the range of supply voltages for
device B, VDDB, over which the system will operate properly?
1.6 Noise margins, III. Using the proportional scheme of Exercise 1.5, what is
the lowest supply voltage (VDD) that can tolerate noise up to 100 mV?
1.7 Noise margins, IV. A logic family uses signal levels relative to VSS and
proportional to VDD as shown in Table 1.5. We connect two logic devices
A and B using this logic family with signals traveling in both directions
between the two devices. Both systems have VDD = 1 V, and system A has
VSSA = 0 V. Over what range of values for VSSB will the system operate
properly?
Table 1.5. Voltage levels for Exercise 1.7
Parameter
Value
VOL
0.9VSS + 0.1VDD
VIL
0.7VSS + 0.3VDD
VIH
0.3VSS + 0.7VDD
VOH
0.1VSS + 0.9VDD
1.8 Gain of restoring devices. What is the minimum absolute value of gain for a
circuit that restores signals according to the values in Table 1.1?
1.9 Gray codes. A continuous value that has been quantized into N states can be
encoded into an n = ⌈log2 N⌉ bit signal in which adjacent states differ in at
most one bit position. Show how the eight temperatures of Figure 1.7(c)
can be encoded into three bits in this manner. Make your encoding such

that the encodings of 82 °F and 68 °F also differ in just one bit position.
1.10 Encoding rules. Equations (1.3) and (1.4) are examples of decoding rules
that return the value represented by a multi-bit digital signal. Write down
the corresponding encoding rules. These rules give the value of each bit of
the digital signal as a function of the value being encoded.
1.11 Encoding playing cards. Suggest a binary representation for playing cards –
a set of binary signals that uniquely identifies one of the 52 cards in a
standard deck. What different representations might be used to (i) optimize
the density (the minimum number of bits per card) or (ii) simplify
operations such as determining whether two cards are of the same suit or
rank? Explain how you can check to see whether two cards are adjacent
(rank differing by one) using a specific representation.
1.12 Day of the week. Explain how to derive the day of the week from the
month/day representation we discussed in Section 1.3.1.
1.13 Colors, I. Derive a representation for colors that supports the operation of
additive composition of primary colors. You start with black and add
colored light that is red, green, or blue.
1.14 Colors, II. Extend the representation of Exercise 1.13 to support three levels
of intensity for each of the primary colored lights; that is, each color can be
off, weakly on, medium on, or strongly on.
1.15 Encoding and decoding, I. A four-core chip is arranged as a 4 × 1 array of
processors, where each processor is connected to its east and west
neighbors. There are no connections on the ends of the array. The
processors’ addresses start at 0 on the east-most processor and go up by 1
to address 3 at the west-most processor. Given the current processor’s
address and the address of a destination processor, how do you determine
whether to go east or west to reach the destination processor?
1.16 Encoding and decoding, II. A 16-core chip is arranged as a 4 × 4 array of
processors where each processor is connected to its north, south, east, and
west neighbors. There are no connections on the edges. Pick an encoding
for the address of each processor (0–15) such that when a datum is moving
through the processors it is easy (i.e., similar to Exercise 1.15) to determine
whether it should move north, south, east, or west at each processor on the
basis of the destination address and the address of the current processor.
(a) Draw the array of processors, labeling each core with its address
according to your encoding.
(b) Describe how to determine the direction the data should move on the
basis of current and destination addresses.

(c) How does this encoding or its interpretation differ from simply labeling
the processors 0–15 starting at the north-west corner?
1.17 Circular Gray code. Come up with a way of encoding the numbers 0–5 onto
a four-bit binary signal so that adjacent numbers differ in only one bit and
also so that the representations of 0 and 5 differ in only one bit.
1 The actual specification for Vmax is VDD + 0.3, where VDD, the power supply, is allowed to vary between
2.3 and 2.7 V.
2 Of course, one is limited by analog input devices in acquiring real-world signals of high precision.
3 This notation for multi-bit signals is discussed in more detail in Section 8.1.
4 The symbol ∨ denotes the logical OR of two binary numbers; see Chapter 3.
5 We leave unanswered for now how the register is initially set with the correct date.
6 Honeywell v. Sperry Rand.

2
The practice of digital system design
Before we dive into the technical details of digital system design, it is useful
to take a high-level look at the way systems are designed in industry today.
This will allow us to put the design techniques we learn in subsequent
chapters into the proper context. This chapter examines four aspects of
contemporary 
digital 
system 
design 
practice: 
the 
design 
process,
implementation technology, computer-aided design tools, and technology
scaling.
We start in Section 2.1 by describing the design process – how a design
starts with a specification and proceeds through the phases of concept
development, feasibility studies, detailed design, and verification. Except for
the last few steps, most of the design work is done using English-language1
documents. A key aspect of any design process is a systematic – and usually
quantitative – process of managing technical risk.
Digital designs are implemented on very-large-scale integrated (VLSI)
circuits (often called chips) and packaged on printed-circuit boards (PCBs).
Section 2.2 discusses the capabilities of contemporary implementation
technology.
The design of highly complex VLSI chips and boards is made possible by
sophisticated computer-aided design (CAD) tools. These tools, described in
Section 2.3, amplify the capability of the designer by performing much of the
work associated with capturing a design, synthesizing the logic and physical
layout, and verifying that the design is both functionally correct and meets
timing.
Approximately every two years, the number of transistors that can be
economically fabricated on an integrated-circuit chip doubles. We discuss this
growth rate, known as Moore’s law, and its implications for digital systems
design in Section 2.4.
2.1 THE DESIGN PROCESS

As in other fields of engineering, the digital design process begins with a
specification. The design then proceeds through phases of concept development,
feasibility, partitioning, and detailed design. Most texts, like this one, deal with
only the last two steps of this process. To put the design and analysis techniques
we will learn into perspective, we will briefly examine the other steps here.
Figure 2.1 gives an overview of the design process.
Figure 2.1. The design process. Initial effort is focused on design specification and risk analysis. Only after
the creation of a product implementation plan does implementation begin. The implementation process
itself has many iterations of verification and optimization. Many products also have multiple internal
hardware revisions before being shipped.
2.1.1 Specification
All designs start with a specification that describes the item to be designed.
Depending on the novelty of the object, developing the specification may be a
straightforward or elaborate process in itself. The vast majority of designs are
evolutionary – the design of a new version of an existing product. For such
evolutionary designs, the specification process is one of determining how much
better (faster, smaller, cheaper, more reliable, etc.) the new product should be. At

the same time, new designs are often constrained by the previous design. For
example, a new processor must usually execute the same instruction set as the
model it is replacing, and a new I/O device must usually support the same
standard I/O interface (e.g., a PCI bus) as the previous generation.
On rare occasions, the object being specified is the first of its kind. For such
revolutionary developments, the specification process is quite different. There
are no constraints of backward compatibility, although the new object may need
to be compatible with one or more standards. This gives the designer more
freedom, but also less guidance, in determining the function, features, and
performance of the object.
Whether revolutionary or evolutionary, the specification process is an iterative
process – like most engineering processes. We start by writing a straw man
specification for the object – and in doing so we identify a number of questions
or open issues. We then iteratively refine this initial specification by gathering
information to answer the questions or resolve the open issues. We meet with
customers or end users of the product to determine the features they want, how
much they value each feature, and how they react to our proposed specification.
We commission engineering studies to determine the cost of certain features.
Examples of cost metrics include how much die area it will take to reach a
certain level of performance, or how much power will be dissipated by adding a
branch predictor to a processor. Each time a new piece of information comes in,
we revise our specification to account for the new information. A history of this
revision process is also kept to give a rationale for the decisions made.
[...]
Instruments, 1973.)
[107] Tredennick, N., Microprocessor Logic Design: The Flowchart Method. (Bedford, MA: Digital Press,
1987.)
[108] Unger, S. H., TheEssenceofLogicCircuits, 2nd edn. (New York: Wiley–IEEE Press, 1996.)
[109] Veitch, E. W., A chart method for simplifying truth functions. In Proceedings of the 1952 ACM
National Meeting, Pittsburgh, May 2–3, 1952. (New York: ACM, 1952), pp. 127–133.
[110] Wallace, C. S., A suggestion for a fast multiplier. IEEE Transactions on Electronic Computers EC-
13: 1 (February 1964), 14–17.
[111] Weinberger, A. and Smith, J. L., A one-microsecond adder using one-megacycle circuitry. IRE
Transactions on Electronic Computers EC-5: 2 (June 1956), 65–73.
[112] Weste, N. and Harris, D., CMOS VLSI Design: A Circuits and Systems Perspective, 4th edn. (Boston,
MA: Addison Wesley, 2010.) [113] Wilkes, M. V. and Stringer, J. B., Microprogramming and the
design of the control circuits in an electronic digital computer. Mathematical Proceedings of the
Cambridge Philosophical Society 49: 02 (1953), 230–238.
[114] Wittenbrink, C., Kilgariff, E., and Prabhu, A., Fermi GF100, a graphics processing unit (GPU)
architecture for compute, tessellation, physics, and computational graphics. In Proceedings of Hot

Chips 22, August 22–24, 2010 (http://hotchips.org/archives/hotchips-22).
[115] Yau, S. and Tang, Y.-S., An efficient algorithm for generating complete test sets for combinational
logic circuits. IEEE Transactions on Computers C-20: 11 (November 1971), 1245–1251.

INDEX OF VHDL DESIGN ENTITIES
Add and subtract
Behavioral, 235
Structural, 235
Adder
Floating-point, 264
Adders
6-input, 285
Behavioral, 229
Carry look-ahead, 272
CLA, modules for radix-4, 275
CLA, radix-4, 274
Full adder, 227
Ripple-carry, 229
Arbiter
Concurrent signal assignment implementation, 177
Combination lock
Control, 370
Datapath, 369
Complex, fixed-point multiplier, 292
Counter
By 3, 351
Incrementing
Datapath, 346
State table, 345
UDL
Multiplexer implementation, 349
Shared adder, 348
Two adder, 347
D flip-flop, 319
Decoder, 159
4 to 16, 163
Divide-by-three FSM, 433
Divider, 243
Encoder
16:4, 174
Case implementation, 172

Concurrent signal assignment implementation, 171
Thermometer, 175
Equality comparator
Three-way, 183
FIFO synchronizer, 601
FIR filter, 299
Gray-code counter
3-bit, 602
4-bit, 596
Huffman decoder, 446
Huffman encoder, 443
Interconnect
Bus, 523
Crossbar, 2x2, 526
Light flasher
1x Factor
Master, 379
Timer, 380
2x Factor
Counter, 384
Master, 383
Magnitude comparator
Behavioral, 183
Iterative, 182
Majority function, 52
Test script, 53
Microcode FSM
Branch and store, 415, 416
ROM and sequencer, 407
ROM only, 399
Multiple-of-3
Bit cell, 200
Testbench, 202
Top level, 201
Multiplexer
Binary with case, 168
Binary with decoder, 167
Binary with select, 168
Case implementation, 165
Concurrent signal assignment implementation, 164
Select implementation, 166
Multiplier

Booth recoder, 280
Booth top level, 279
Floating-point, 261
Unsigned 4-bit, 240
Pipeline register
Double buffer, 509
Prime plus one
Case implementation, 130
Concurrent signal assignment implementation, 137
Conditional signal assignment, 138
Decimal with don’t cares, 142
Decimal, synthesized, 142
Decoder implementation, 162
If implementation, 136
Matching case implementation, 135
Multiplexer implementation, 170
Selected signal assignment, 138
Structural, 139
Synthesized, 133
Testbench, 144
Testbench, go/no-go, 146
Priority arbiter, 205
Programmable, 180
Priority encoder
Arbiter and encoder, 179
Behavioral implementation, 179
Processor
1 of 2, 422
2 of 2, 423
ALU, 421
RAM, 192
Representation converter
Fixed to floating-point, 296
Floating to fixed-point, 297
ROM
Array implementation, 188
Case implementation, 187
Seven-segment decoder
Case implementation, 150
Constant definitions, 149
Inverse, 151
Shift register
LRL, 354
LSB only, 352
Variable, 356

Shifter
Barrel, 184
Left, 184
Thermometer detector
Case implementation, 134
Concurrent signal assignment implementation, 137
Matching case implementation, 135
Structural implementation, 141
Testbench, 147
Thermostat, 14
Tic-Tac-Toe, combinational
Empty, 211
Select 3, 212
Testbench, 213
Top level, 209
Two-in-array, 210
Two-in-row, 211
Tic-Tac-Toe, sequential, 440
Timer, 350
Tomorrow
Days in month, 203
Next day of week, 203
Top level, 204
Traffic-light controller
Factored
Combiner, 390
Light FSM, 391
Master, 389
Simple
Definitions, 318
Definitions, one-hot, 318
FSM, 317
Test bench, 320
Universal shifter/counter, 355
Vending machine
Combined, 366
Controller, 1 of 2, 361
Controller, 2 of 2, 362
Datapath, 363
Testbench, 364
Top level, 360

SUBJECT INDEX
⊕, 49
∨, 43
∧, 43
1’s complement, 231
2’s complement, 231
Absolute error, 250
Absorption property, 44
Accelerated life test, 461
Accuracy, numerical, 251
Activity factor, 99
Adder
Carry look-ahead, 269
Pipelined, 502
Ripple-carry, 228
Addition, 224
Fixed-point, 255
Floating-point, 260
Address space, 541
Alignment, floating-point, 260
Allocator
Crossbar, 525
AND, 43
Schematic, 49
Switch circuit, 58
VHDL, 51
Annihilation axiom, 43
AOI, 72
CMOS gate, 72
Logical effort, 89
Sizing, 89
Arbiter, 173
Bus, 522
Look-ahead, 271
Architecture body, 14
Arithmetic logic unit (ALU), 425
ASIC, 28
Associative property, 44

Barrel shifter, 183
Behavioral VHDL, 132
Binary numbers, 221
Binary point, 252
Binary signal, 4
Binary-coded decimal numbers, 222
Boolean algebra, 43
Axioms, 43
Properties, 44
Booth recoding, 276
Radix-16, 278
Radix-4, 276
Radix-8, 278
Bottleneck, 511
Boundary scan, 459
Branch
Multi-way, 408
Two-way, 404
Broadcast
Bus, 523
Bubble rule, 70
Buffer, 6
Bug tracking, 456
Built-in self-test, 459
Bus, 522
Arbiter, 522
Multiple destinations, 523
Split transaction, 524
Bus notation, 157
Cache, 540
Direct-mapped, 542
Eviction, 542
Fully-associative, 542
Line size, 541
Write policy, 543
CAD tools, 32
CAM, 542
Capacitance, gate, 65
Carry look-ahead, see Look-ahead
Change control, 24
Channels, 527
Checking models, 153
Circuit boards, 31
Clock, 307
Clock domain, 592
Clock gating, 99
CMOS gate, 69

Color, subtractive representation of, 11
Combination lock, 367
Combinational logic
Composition, 106
Definition, 105
Combining property, 44
Commutative property, 44
Comparator, 12, 180
Complementation property, 44
Composition of subsystems, 12
Compressor, 283
Concatenation operator (&)., 171
Concept development, 24
Condition operator ??, 200, 631
Consensus, 44
Constraint file, 195
Static timing, 338
Contamination delay, 328
Counter, 344
UDL, 346
Cover, logic function, 115
Coverage, 453
Critical path, 91
Crossbar, 524
Allocator, 525
Cube, representation, see Logic representations
Data sheet, 193
Datapath, 344
Vending machine, 360
Day of year, representing, 10
Decimal numbers, 221
Decoder, 157
SRAM, row, 533
Use in logic implementation, 161
Delay
Contamination, 328
Gate, 82
Large load, 85
Logic chain, 89
Optimizing, 92
Propagation, 328
Wire, repeated, 96
Wire, unbuffered, 95
With fan-out, 85
DeMorgan’s theorem, 44
Denormalized numbers, 258
DES cracker

Partitioning, 475
Specification, 471
Timing, 489
Design entity, 14, 51
Design process
CAD tool flow, 32
General, 22
System, 467
Dimension-order routing, 527
Direct instantiation, 143
Directed test, 455
Distributive property, 44
Divide by three FSM, 431
Divide-and-conquer, 207
Division, 240
Double buffering, 507
Drain, 64
DRAM, 534
Access scheduling, 540
Access sequence, 534
Atom, 536
Interface, 534
Precharge, 535
Timing, 535
Dual function, 46
Earle latch, 567
Encoder, 171
Encoding
Binary-weighted, 10
Gray, 20
Thermometer, 10
Energy dissipation, 98
Entity declaration, 14
EPROM, 189
Equality comparison, 180
Error, numerical
Absolute, 250
Relative, 251
Escape pattern, 31
Event flow, 488
Exclusive OR, 51
Exhaustive test, 454
Exponent, 257
Fan-in, 86
Fanout, 85
Fault model, 456

Feasibility study, 26
FIFO, 596
Find first one (FF1), see Arbiter
Finite State Machine (FSM), 307
Factoring, 375
Implementation, 313
VHDL, 316
Fixed-function logic, 16
Fixed-point numbers, 252
Flip-flop
CMOS, 572
Contamination delay, 331
D, 307, 331
Derivation, 574
Hold time, 331
Implementation, 568
Propagation delay, 331
Pulsed, 578
RS, 306, 553
Setup time, 331
Flits, 529
Floating-point, 257
Flow control, 386, 481
Flow table, 552
FO4, 85
Formal verification, 455
FPGA, 29
Front end, analog, 16
Full adder, 224
Fundamental mode, 553
Funnel shifter, 183
Generate signal, 225
Look-ahead, 269
Gradual underflow, 259
Grant matrix, 525
Gray-code, 596
Grid, 30
Half adder, 224
Hardware, 16
Hazards, combinational, 121
Dynamic, 122
Static-0, 121
Static-1, 121
Head-of-line blocking, 539
Hexadecimal, base-16, 222
High impedance, 75

Hold time
Calculating, 568, 570
Flip-flop, 331
Latch, 566, 571
SRAM, 533
Hold-time violations, 331
Homing sequence, 325
Huffman decoder, 442
Huffman encoder, 440
Idempotence property, 44
Identity axiom, 43
Idioms of digital design, 195
Illegal state, 580
Probability of entry, 584
Implementation coverage, 454
Implicant of a logic function, 110
Implied one, 257, 267
Instantiation, design entity, 130
Instruction types, 410
Branch, 404
Store, 410
Intellectual property, 195
Interconnect, 521
Bus, see Bus
Crossbar, see Crossbar
Networks, 527
Interface
Always-valid, 479
Isochronous, 486
Packetized, 483
Partitioning, 482
Periodically valid, 480
Pull timing, 481
Push timing, 481
Ready–valid, 481
Serial, 483
Static, 479
Inversion bubble, 49
Inverter, see NOT
Iterative circuit, 175
JTAG, 459
Karnaugh map, 113
Asynchronous, 555
Latch, 566

Derivation, 572
Tri-state, 571
Latency, 497
Length, gate, 63
Light flasher, 375
Load balance, 511
Locality, 541
Logic diagram, 48
Logic representations
Cube, 110
Incomplete, 117
Karnaugh map, 113
Normal form, 47, 109
Sum of products, 47
Logical effort, 87
Look-ahead, 176, 269
LSB, 222
Magnitude comparator, 181
Look-ahead, 271
Majority function, 45
CMOS gate, 72
Schematic, 49
Switch network, 60
VHDL, 51
Mantissa, 257
Master FSM, 376
Master–slave FSMs, 386
Master–slave partitioning, 474
Maxterm, 119
Mealy state machine, 311
Memory
Bank conflicts, 540
Banked, 536
Bit-sliced, 536
Hierarchy, 540
Interleaved, 537
Primitive, 532
Metastability, 581
Convergence, 583
Demonstration, 585
Microcoded FSM, 398
Microinstruction, 400
Minimum cycle time, 332
Minterm, 47, 109
Model-view-controller partitioning, 474
Monotonic functions, 69
Moore state machine, 311

Moore’s law, 34
MOS transistor
Current, 66
Electrical model, 65
Operation, 63
Speed, 67
Switch model, 62
MSB, 222
Multicast
Bus, 523
Multiple-of-3 circuit, 199
Multiplexer, 163
Binary-select, 166
Function implementation with, 170
SRAM, column, 533
Tri-state, 76, 163
Multiplication, 237
Booth recoding, 276
Complex numbers, 290
Fixed-point, 255
Floating-point, 259
Wallace tree, 278
Music player
Partitioning, 475
Specification, 472
Timing, 493
NAND, 50
CMOS gate, 70
Logical effort, 87
Schematic, 50
Sizing, 87
Negation axiom, 43
Nested timing, 483
NFET, 63
Noise, 5
Accumulation, 6
Analog, 6
Restoration, 6
Noise margin, 7
NOR, 50
CMOS gate, 70
Logical effort, 88
Schematic, 50
Sizing, 88
Normal form, see Logic representations
Normalization, 257
NOT, 43

CMOS gate, 70
Delay, 82
Energy, 98
Power, 99
Schematic, 49
Sizing, 83
Transfer curve, 66
VHDL, 51
One-hot code, 157
One-hot decoder, 157
Opcode, 408
OR, 43
Schematic, 49
Switch circuit, 59
VHDL, 51
Oscillation, asynchronous, 553
Overflow, 230
2’s complement, 232, 233
Package, 14
Package declaration, 149
Packet, 521
Packetization, 484
Parasitic capacitance, 93
Partial product, 237
Partitioning
Control and data, 356
System, 473
Pass/fail simulation, 147
Patch, microcode, 398
Perfect induction, 44
PFET, 63
Pipeline, 386, 497
Adder, 502
Double buffered, 507
Examples, 500
FIFO buffering, 512
Stalls, 505
Pipeline partitioning, 474
PLA (programmable logic array), 192
Pong
Partitioning, 474
Specification, 468
Timing, 489
Port
SRAM, 533
Power

Dynamic, 99
Scaling, 100
Static, 99
Power gating, 99
Precision, numerical, 251
Predecoder, 160
Prime implicant, 111
Essential, 112
Priority arbiter, 205
Priority encoder, 177
Processor, 16, 420
Product implementation plan, 26
Product-of-sums
implementation, 119
Program counter, 404
PROM, 189
Propagate signal, 225
Look-ahead, 269
Propagation delay, 328
SRAM, 533
Pulldown network, 69
Pullup network, 70
Qualified expression, 347
Quantized representation, 9
Race, asynchronous, 551, 558
Critical, 558
RAM (random access memory), 189
Random test, 455
Range
Fixed-point, 253
Floating-point, 258
Register, 313
Regression testing, 27
Relative error, 251
Repeater, 96
Representation function, 250
Resistance, source, 65
Resolution, 251
Fixed-point, 253
Floating-point, 257
Resource partitioning, 474
Risks, 25
ROM (read-only memory), 184
Function implementation with, 185
Rounding, 251
Router, 527

Scaled numbers, 254
Scaling, transistor, 34
Scan chain, 458
SDDR3, 536
Sensitivity list, 132
Sequencer, microcode, 402
Sequential circuits, 305
Asynchronous, 551
Synchronous, 307
Serialization, 483
Setup time
Calculating, 568, 570
Flip-flop, 331
Latch, 566, 571
SRAM, 533
Setup-time violations, 331
Seven-segment decoder, 126, 148
Inverse, 152
Shift register, 352
Shifters, 183
Shmoo plot, 461
Sign extension, 236
Sign-magnitude numbers, 230
Signal replication, 165
Signaling
Analog, 5
Binary, 4
Multi-bit, 9
Signed numbers, 230
Simulation, VHDL, 33, 143
Sizing, logic gates, 86
Skew, clock, 334
Slack, timing, 333
Slice, 168
Software, 16, 427
SOS detection FSM, 432
Source, 64
Spatial locality, 541
Specification, 22
System, 468
Specification coverage, 453
Speculation, 491
SRAM, 532
Timing, 533
Stable state, 553
Stall, see Pipeline
Standard-cell, 28
State, 306

State assignment, 312
Binary, 312
One-hot, 312
State diagram, 308
State equivalence, 573
State register, 313
State table, 308
Straw-man specification, 23
Structural VHDL, 132
Stuck-at fault, 456
Subroutines, 414
Subtractor, 234
Subtype, 188
Sum of products, see Logic representations
Switch circuit, 58
Symmetric functions, 72
Synchronization failure, 580
Synchronizer, 592
Brute-force, 593
FIFO, 596
Sequence, 593
State, 593
Synthesis, VHDL, 13, 132
System specification, 468
System timing, 479
Temporal locality, 541
Test patterns, 145
Test plan, 27
Test suite, 453
Test vector, 457
Testbench, 143
Thermometer encoding, see Encoding
Throughput, 497
Tic-Tac-Toe, 207
Sequential, 439
Timer, 349
Timing analysis tools, 337
Timing diagram, 306
Timing table, 487
Timing, interface, see Interface, 479
Toggle circuit, 554
Tomorrow circuit, 201
Topology, interconnect, 527
Total path effort, 92
Tournament arbiter, 205
Traffic-light controller
Factored, 382

Unfactored, 309
Trajectory map, 555
Transfer curve, DC, 7
Transient state, 553, 555
Transistor, see MOS transistor
Tri-state circuits, 75
Truncation, 251
Truth table, 43, 107
Type conversion, 144
Unit test, 27
Unsigned numbers, 230
Use clause, 14, 54
V0, 4
V1, 4
VIH, 4
VIL, 4
Vmax, 4
Vmin, 4
VNMH, 7
VNML, 7
VOH, 4
VOL, 4
Value function, 250
Vending-machine FSM, 357
Verification, 27, 453
Verilog, 13
VHDL, 13
VHDL “don’t care” value (’-’), 134, 645
VHDL aggregate, 378
VHDL architecture body, 131, 628
VHDL architecture declarative part, 629
VHDL architecture statement part, 629
VHDL array aggregate, 162, 165, 630
VHDL attributes, 638
VHDL bit string literal, 131, 625
VHDL boolean expressions, 51
VHDL case statement, 131, 644
VHDL component declaration, 52, 629
VHDL component instantiation, 132, 634
VHDL compound delimiter
<< (double less than, external name), 321, 362
>> (double greater than, external name), 321, 362
:= (constant initialization), 629
:= (variable assignment), 646

<= (signal assignment), 15, 51, 632
=> (arrow, inside a case statement), 131, 645
=> (arrow, inside array aggregate), 165, 630
=> (arrow, inside named association), 132, 635
VHDL concurrent signal assignment statement, 632
VHDL concurrent statement, 136
VHDL conditional signal assignment, 138, 632
VHDL configuration declaration, 140
VHDL delimiter
| (choice delimiter), 131, 633
’ (attribute name), 638
’ (qualified expression), 316, 627
. (period, external name), 321, 362
. (period, record element access), 378, 627
: (colon, component instantiation), 132, 634
: (colon, external name), 321, 362
: (colon, port declaration), 131
: (colon, signal declaration), 52
; semicolon, 15, 51
VHDL design entity, 129
VHDL direct instantiation, 635
VHDL entity declaration, 130, 628
VHDL external names, 362
VHDL external path name, 321
VHDL frequently used textbook components
AddSub (add/subtract unit), 234
Arb (fixed priority arbiter), 176
Dec (n to m decoder), 158
EqComp (equality comparator), 181
FullAdder (full adder), 226
MagComp (magnitude comparator), 182
Mux3 (3 → 1 one-hot select multiplexer), 164
Muxb3 (3 → 1 binary-select multiplexer), 166
RAM (read-write memory), 191
RArb (reversed fixed priority arbiter), 176
ROM (read-only memory), 187
sDFF (flip-flop, single-bit), 318
vDFF (flip-flop, multi-bit), 318
vDFFE (flip-flop with enable, multi-bit), 414
VHDL generic constant, 158
VHDL if statement, 136
VHDL index range, 625
VHDL integer type, 145, 624
VHDL keywords
all (sensitivity list), 643
all (use clause), 14
and, 51
architecture, 14, 15, 628, 629

array, 188, 626
attribute, 189, 638
begin (architecture body), 15, 52, 629
begin (process statement), 646
buffer, 131, 628, 647
case, 131, 644
case?, 134, 644
component, 52, 53, 139, 149, 629
configuration (component instantiation), 147, 634
configuration (configuration declaration), 140
constant, 149, 629
downto, 15, 625
else, 14, 15, 138, 632
elsif, 136, 644
end, 14
entity, 14, 52, 130, 628, 634
file, 188
for, 53, 188
function, 188
generic (generic parameter), 158, 628, 629
generic map (component instantiation), 159, 634
if, 136, 644
impure, 188
in, 14, 131, 628
inout, 131, 628
is, 14, 52, 130, 131, 628
library, 14, 627
loop, 53
map, 53, 634
mod, 200
not, 51
of, 14, 628
or, 51
others (use in aggregate), 165
others (use in case statement), 131, 645
others (use in selected signal assignment), 137, 633
out, 15, 131, 628
package, 149
port, 14, 130, 628, 629
port map, 53, 132, 634
process, 52, 53, 130, 132, 642
record, 378, 627
report, 53, 144, 145
return, 188
select, 137, 138, 633
signal, 52, 629
sll (shift left logical), 159
srl (shift right logical), 159

subtype, 150, 188
then, 136, 644
to, 53, 625
type, 188
use, 14, 627
variable, 188, 646, 647
wait, 53
when (case statement), 131, 644
when (conditional signal assignment), 15, 632
when (selected signal assignment), 137, 633
with, 137, 138, 633
xor, 51
VHDL matching case statement, 134, 644
VHDL named association, 132, 635
VHDL operators, 631
+ (add), 228, 630
- (subtract), 234, 630
> (greater than), 14
?? (condition operator), 200, 631
** (exponentiation), 630
* (multiplication), 630
/= (inequality), 147, 630
/ (division), 630
& (concatenation), 145, 630
not, 630
and, 51
mod (modulo), 200
not, 51
or, 51
xor, 51
VHDL positional association, 132, 635
VHDL predefined attributes, 638
VHDL qualified expression, 316, 627
VHDL record type, 617, 626
VHDL resolution function, 636
VHDL selected signal assignment, 137, 633
VHDL sensitivity list, 143, 641
VHDL signal declaration, 52, 629
VHDL slice, 162, 629
VHDL standard functions
conv_std_logic_vector, 351
falling_edge, 652
or_reduce, 173
rising_edge, 320, 647, 652
shift_left, 159
shift_right, 236
std.env.stop, 54, 144, 321
to_hstring, 145

to_integer, 144, 188
to_ostring, 145
to_string, 53, 144, 145
to_unsigned, 144
VHDL standard libraries
ieee.numeric_std, 144
ieee.std_logic_1164, 14
ieee.std_logic_textio, 188
ieee.std_logic_unsigned, 53
std.env, 320
std.textio, 188
work, 143
VHDL standard types
boolean, 624
enumeration, 626
integer, 624
record, 378
std_logic, 14, 51, 624
std_logic_vector, 14, 625
VHDL structural description, 138, 634
VHDL variable, 646
VHDL pragma translate_off, 52
Virtual channels, 529
Wallace tree, 278
Weighted number representation, 221
Width, gate, 63
Wires, 94
Write buffer, 544
X
Input, 110
Output, 117
XNOR, 180
XOR, 49
CMOS gate, 73
Schematic, 49
Switch circuit, 61
z state, 75

